Co-MOF-74_2016-09-08_12:07:03
#******************************************
#
# file created by Zeo++
# Zeo++ is an open source package to
# analyze microporous materials
#
#*******************************************
_cell_length_a                  26.1988
_cell_length_b                  45.3777
_cell_length_c                  6.88911
_cell_angle_alpha               90
_cell_angle_beta                90
_cell_angle_gamma               90

_symmetry_space_group_name_H-M  'P1'
_symmetry_Int_Tables_number     1
_symmetry_cell_setting          Orthorhombic

loop_
_symmetry_equiv_pos_as_xyz
'+x,+y,+z'

loop_
_atom_site_label
_atom_site_type_symbol
_atom_site_fract_x
_atom_site_fract_y
_atom_site_fract_z
1    Mof_Ob   0.92121     0.483781    0.571318
2    Mof_Ob   0.42121     0.983781    0.571318
3    Mof_Ob   0.92121     0.150441    0.904657
4    Mof_Ob   0.42121     0.650441    0.904657
5    Mof_Oc   0.904014    0.176375    0.495224
6    Mof_Oc   0.404014    0.676374    0.495224
7    Mof_Oa   0.867925    0.164675    0.140236
8    Mof_Oa   0.367925    0.664675    0.140236
9    Mof_Oa   0.867927    0.49801     0.80693
10   Mof_Oa   0.367927    0.99801     0.80693
11   Mof_Oa   0.818999    0.184956    0.806901
12   Mof_Oa   0.318999    0.684956    0.806901
13   Mof_Ob   0.813732    0.218723    0.571327
14   Mof_Ob   0.313732    0.718723    0.571327
15   Mof_Oc   0.812553    0.459808    0.49524
16   Mof_Oc   0.312553    0.959808    0.49524
17   Mof_Oa   0.813036    0.483702    0.140264
18   Mof_Oa   0.313036    0.983702    0.140264
19   Mof_Ob   0.765054    0.464169    0.904648
20   Mof_Ob   0.265054    0.964169    0.904648
21   Mof_Ob   0.734947    0.369165    0.762014
22   Mof_Ob   0.234947    0.869165    0.762014
23   Mof_Oc   0.71654     0.302836    0.838082
24   Mof_Oc   0.21654     0.802836    0.838082
25   Mof_Oa   0.686965    0.349633    0.526398
26   Mof_Oa   0.186965    0.849633    0.526398
27   Mof_Oc   0.687447    0.373526    0.171422
28   Mof_Oc   0.187447    0.873526    0.171422
29   Mof_Oc   0.404015    0.00970646  0.161903
30   Mof_Oc   0.904015    0.509706    0.161903
31   Mof_Oc   0.404016    0.34304     0.828571
32   Mof_Oc   0.904016    0.84304     0.828571
33   Mof_Ob   0.421214    0.317108    0.237999
34   Mof_Ob   0.921214    0.817108    0.237999
35   Mof_Ob   0.578787    0.016225    0.428671
36   Mof_Ob   0.0787865   0.516225    0.428671
37   Mof_Ob   0.578791    0.349553    0.0953368
38   Mof_Ob   0.0787912   0.849553    0.0953368
39   Mof_Oc   0.595986    0.323628    0.504759
40   Mof_Oc   0.0959857   0.823628    0.504759
41   Mof_Oa   0.632074    0.335325    0.859732
42   Mof_Oa   0.132074    0.835325    0.859732
43   Mof_Oa   0.632074    0.00199921  0.19306
44   Mof_Oa   0.132074    0.501999    0.19306
45   Mof_Oa   0.68099     0.315039    0.19306
46   Mof_Oa   0.18099     0.815039    0.19306
47   Mof_Ob   0.686269    0.281275    0.428655
48   Mof_Ob   0.186269    0.781275    0.428655
49   Mof_Oc   0.687477    0.0401855   0.504747
50   Mof_Oc   0.187477    0.540186    0.504747
51   Mof_Oa   0.686947    0.0163087   0.859741
52   Mof_Oa   0.186947    0.516309    0.859741
53   Mof_Ob   0.734949    0.0358302   0.0953332
54   Mof_Ob   0.234949    0.53583     0.0953332
55   Mof_Ob   0.76504     0.130839    0.237989
56   Mof_Ob   0.26504     0.630839    0.237989
57   Mof_Ob   0.078788    0.182892    0.762006
58   Mof_Ob   0.578788    0.682892    0.762006
59   Mof_Oc   0.0959843   0.156959    0.171438
60   Mof_Oc   0.595984    0.656959    0.171438
61   Mof_Oc   0.0959852   0.490293    0.838091
62   Mof_Oc   0.595985    0.990293    0.838091
63   Mof_Oc   0.783458    0.197163    0.161895
64   Mof_Oc   0.283458    0.697163    0.161895
65   Mof_Oa   0.813052    0.150359    0.473559
66   Mof_Oa   0.313052    0.650359    0.473559
67   Mof_Oc   0.812527    0.12648     0.828565
68   Mof_Oc   0.312527    0.62648     0.828565
69   Mof_Oa   0.132073    0.168658    0.526426
70   Mof_Oa   0.632073    0.668658    0.526426
71   Mof_Oa   0.180999    0.148377    0.859761
72   Mof_Oa   0.680999    0.648377    0.859761
73   Mof_Oa   0.180979    0.481706    0.526387
74   Mof_Oa   0.680979    0.981706    0.526387
75   Mof_Ob   0.186266    0.114611    0.0953276
76   Mof_Ob   0.686266    0.614611    0.0953276
77   Mof_Ob   0.186278    0.447947    0.761998
78   Mof_Ob   0.686278    0.947947    0.761998
79   Mof_Oc   0.187471    0.206853    0.838097
80   Mof_Oc   0.687471    0.706853    0.838097
81   Mof_Oa   0.186945    0.182974    0.193103
82   Mof_Oa   0.686945    0.682974    0.193103
83   Mof_Oc   0.216541    0.13617     0.504767
84   Mof_Oc   0.716541    0.63617     0.504767
85   Mof_Oc   0.216563    0.469512    0.171422
86   Mof_Oc   0.716563    0.969513    0.171422
87   Mof_Ob   0.234959    0.202494    0.42868
88   Mof_Ob   0.734959    0.702494    0.42868
89   Mof_Ob   0.265051    0.297502    0.571321
90   Mof_Ob   0.765051    0.797502    0.571321
91   Mof_Oc   0.28346     0.0304987   0.82858
92   Mof_Oc   0.78346     0.530499    0.82858
93   Mof_Oc   0.283438    0.36382     0.49524
94   Mof_Oc   0.783438    0.86382     0.49524
95   Mof_Oa   0.313055    0.317024    0.806921
96   Mof_Oa   0.813055    0.817024    0.806921
97   Mof_Oc   0.312524    0.293147    0.161915
98   Mof_Oc   0.812524    0.793147    0.161915
99   Mof_Ob   0.313731    0.0520588   0.238014
100  Mof_Ob   0.813731    0.552059    0.238014
101  Mof_Ob   0.313723    0.385385    0.904664
102  Mof_Ob   0.813723    0.885385    0.904664
103  Mof_Oa   0.319011    0.0182954   0.473602
104  Mof_Oa   0.819011    0.518295    0.473602
105  Mof_Oa   0.319022    0.351627    0.140275
106  Mof_Oa   0.819022    0.851627    0.140275
107  Mof_Oa   0.367928    0.331333    0.473602
108  Mof_Oa   0.867928    0.831333    0.473602
109  Mof_Cd   0.993991    0.174728    0.526038
110  Mof_Cd   0.493991    0.674728    0.526038
111  Mof_Cb   0.956787    0.163358    0.213386
112  Mof_Cb   0.456787    0.663358    0.213386
113  Mof_Cb   0.956788    0.496692    0.880056
114  Mof_Cb   0.456788    0.996692    0.880056
115  Mof_Cc   0.950048    0.171527    0.412336
116  Mof_Cc   0.450048    0.671527    0.412336
117  Mof_Ca   0.913289    0.492529    0.744555
118  Mof_Ca   0.413289    0.992529    0.744555
119  Mof_Ca   0.913288    0.159193    0.0778792
120  Mof_Ca   0.413288    0.659193    0.0778792
121  Mof_Ca   0.804568    0.210381    0.744541
122  Mof_Ca   0.304568    0.710381    0.744541
123  Mof_Cc   0.782269    0.439214    0.412339
124  Mof_Cc   0.282269    0.939214    0.412339
125  Mof_Ca   0.782141    0.463759    0.0778768
126  Mof_Ca   0.282141    0.963759    0.0778768
127  Mof_Cb   0.776586    0.230056    0.880051
128  Mof_Cb   0.276586    0.730056    0.880051
129  Mof_Cb   0.766642    0.439927    0.213382
130  Mof_Cb   0.266642    0.939927    0.213382
131  Mof_Cd   0.765101    0.415642    0.526042
132  Mof_Cd   0.265101    0.915642    0.526042
133  Mof_Cd   0.759097    0.257037    0.807291
134  Mof_Cd   0.259097    0.757037    0.807291
135  Mof_Cd   0.734899    0.417692    0.140621
136  Mof_Cd   0.234899    0.917692    0.140621
137  Mof_Cb   0.733359    0.393408    0.453281
138  Mof_Cb   0.233359    0.893408    0.453281
139  Mof_Cc   0.732304    0.277405    0.92097
140  Mof_Cc   0.232304    0.777405    0.92097
141  Mof_Ca   0.71786     0.369575    0.588785
142  Mof_Ca   0.21786     0.869575    0.588785
143  Mof_Cc   0.717731    0.39412     0.254324
144  Mof_Cc   0.217731    0.89412     0.254324
145  Mof_Cd   0.00600695  0.158605    0.140624
146  Mof_Cd   0.506007    0.658605    0.140624
147  Mof_Cd   0.00600606  0.491938    0.807294
148  Mof_Cd   0.506006    0.991938    0.807294
149  Mof_Cb   0.0432113   0.169975    0.453276
150  Mof_Cb   0.543211    0.669975    0.453276
151  Mof_Cc   0.04995     0.495139    0.920991
152  Mof_Cc   0.54995     0.995139    0.920991
153  Mof_Cc   0.0499505   0.161806    0.254326
154  Mof_Cc   0.54995     0.661806    0.254326
155  Mof_Ca   0.413291    0.325857    0.411226
156  Mof_Ca   0.913291    0.825857    0.411226
157  Mof_Cc   0.450051    0.338194    0.745672
158  Mof_Cc   0.950051    0.838194    0.745672
159  Mof_Cc   0.450048    0.0048591   0.0790079
160  Mof_Cc   0.950048    0.504859    0.0790079
161  Mof_Cb   0.45679     0.330025    0.546725
162  Mof_Cb   0.95679     0.830025    0.546725
163  Mof_Cd   0.493993    0.00805999  0.192705
164  Mof_Cd   0.993993    0.50806     0.192705
165  Mof_Cd   0.493994    0.341396    0.859371
166  Mof_Cd   0.993994    0.841396    0.859371
167  Mof_Cd   0.506009    0.325273    0.473955
168  Mof_Cd   0.00600903  0.825273    0.473955
169  Mof_Cb   0.543213    0.336642    0.786604
170  Mof_Cb   0.0432135   0.836642    0.786604
171  Mof_Cb   0.543211    0.0033079   0.11994
172  Mof_Cb   0.0432105   0.503308    0.11994
173  Mof_Cc   0.549953    0.328475    0.587652
174  Mof_Cc   0.0499532   0.828475    0.587652
175  Mof_Ca   0.586709    0.00747509  0.25543
176  Mof_Ca   0.0867092   0.507475    0.25543
177  Mof_Ca   0.586713    0.340805    0.922113
178  Mof_Ca   0.086713    0.840805    0.922113
179  Mof_Ca   0.69543     0.289616    0.255436
180  Mof_Ca   0.19543     0.789616    0.255436
181  Mof_Cc   0.717739    0.060781    0.587632
182  Mof_Cc   0.217739    0.560781    0.587632
183  Mof_Ca   0.717861    0.0362391   0.922127
184  Mof_Ca   0.217861    0.536239    0.922127
185  Mof_Cb   0.723416    0.269943    0.119933
186  Mof_Cb   0.223416    0.769943    0.119933
187  Mof_Cb   0.733377    0.0600681   0.786602
188  Mof_Cb   0.233377    0.560068    0.786602
189  Mof_Cd   0.734894    0.0843625   0.473948
190  Mof_Cd   0.234894    0.584363    0.473948
191  Mof_Cd   0.740906    0.242963    0.192696
192  Mof_Cd   0.240906    0.742963    0.192696
193  Mof_Cd   0.765107    0.0823037   0.85937
194  Mof_Cd   0.265107    0.582304    0.85937
195  Mof_Ca   0.0867106   0.17414     0.588783
196  Mof_Ca   0.586711    0.67414     0.588783
197  Mof_Cb   0.766622    0.106598    0.546714
198  Mof_Cb   0.266622    0.606598    0.546714
199  Mof_Cc   0.7677      0.222594    0.0790169
200  Mof_Cc   0.2677      0.722594    0.0790169
201  Mof_Ca   0.782136    0.130428    0.411196
202  Mof_Ca   0.282136    0.630428    0.411196
203  Mof_Cc   0.782262    0.105884    0.745683
204  Mof_Cc   0.282262    0.605884    0.745683
205  Mof_Ca   0.195429    0.122953    0.922128
206  Mof_Ca   0.695429    0.622953    0.922128
207  Mof_Ca   0.195437    0.456285    0.588776
208  Mof_Ca   0.695437    0.956285    0.588776
209  Mof_Cc   0.217737    0.227449    0.920981
210  Mof_Cc   0.717737    0.727449    0.920981
211  Mof_Ca   0.217863    0.202906    0.25546
212  Mof_Ca   0.717863    0.702906    0.25546
213  Mof_Cb   0.223412    0.103278    0.786609
214  Mof_Cb   0.723412    0.603278    0.786609
215  Mof_Cb   0.223433    0.436617    0.453275
216  Mof_Cb   0.723433    0.936617    0.453275
217  Mof_Cc   0.232299    0.11074     0.587643
218  Mof_Cc   0.732299    0.61074     0.587643
219  Mof_Cc   0.232312    0.444073    0.25432
220  Mof_Cc   0.732312    0.944073    0.25432
221  Mof_Cb   0.233377    0.226735    0.11995
222  Mof_Cb   0.733377    0.726735    0.11995
223  Mof_Cd   0.234894    0.25103     0.807294
224  Mof_Cd   0.734894    0.75103     0.807294
225  Mof_Cd   0.240902    0.0762964   0.859372
226  Mof_Cd   0.740902    0.576296    0.859372
227  Mof_Cd   0.240916    0.40963     0.526037
228  Mof_Cd   0.740916    0.90963     0.526037
229  Mof_Cd   0.259093    0.0903712   0.473964
230  Mof_Cd   0.759093    0.590371    0.473964
231  Mof_Cd   0.259085    0.423702    0.140625
232  Mof_Cd   0.759085    0.923702    0.140625
233  Mof_Cd   0.265105    0.24897     0.192712
234  Mof_Cd   0.765105    0.74897     0.192712
235  Mof_Cb   0.266623    0.273264    0.880058
236  Mof_Cb   0.766623    0.773264    0.880058
237  Mof_Cc   0.267696    0.0559289   0.745694
238  Mof_Cc   0.767696    0.555929    0.745694
239  Mof_Cc   0.267689    0.38926     0.412343
240  Mof_Cc   0.767689    0.88926     0.412343
241  Mof_Cb   0.276584    0.0633906   0.546731
242  Mof_Cb   0.776584    0.563391    0.546731
243  Mof_Cb   0.276568    0.396716    0.213387
244  Mof_Cb   0.776568    0.896716    0.213387
245  Mof_Ca   0.28214     0.297093    0.744542
246  Mof_Ca   0.78214     0.797093    0.744542
247  Mof_Cc   0.282261    0.272551    0.0790271
248  Mof_Cc   0.78226     0.772551    0.0790271
249  Mof_Ca   0.304572    0.0437177   0.41122
250  Mof_Ca   0.804572    0.543718    0.41122
251  Mof_Ca   0.304564    0.377047    0.0778869
252  Mof_Ca   0.804564    0.877047    0.0778869
253  Mof_H    0.989711    0.181236    0.67733
254  Mof_H    0.489711    0.681236    0.67733
255  Mof_H    0.777009    0.414531    0.677336
256  Mof_H    0.277009    0.914531    0.677336
257  Mof_H    0.766707    0.262432    0.655986
258  Mof_H    0.266707    0.762432    0.655986
259  Mof_H    0.722992    0.418804    0.989327
260  Mof_H    0.222992    0.918804    0.989327
261  Mof_H    0.0102875   0.152097    0.989332
262  Mof_H    0.510287    0.652097    0.989332
263  Mof_H    0.0102862   0.485429    0.655998
264  Mof_H    0.510286    0.985429    0.655998
265  Mof_H    0.489712    0.0145692   0.344
266  Mof_H    0.989712    0.514569    0.344
267  Mof_H    0.489715    0.347904    0.0106631
268  Mof_H    0.989715    0.847904    0.0106631
269  Mof_H    0.510289    0.318764    0.322664
270  Mof_H    0.0102893   0.818764    0.322664
271  Mof_H    0.722996    0.0854703   0.322642
272  Mof_H    0.222996    0.58547     0.322642
273  Mof_H    0.733296    0.237568    0.344001
274  Mof_H    0.233296    0.737568    0.344001
275  Mof_H    0.777004    0.081195    0.0106755
276  Mof_H    0.277004    0.581195    0.0106755
277  Mof_H    0.222995    0.252138    0.655985
278  Mof_H    0.722995    0.752138    0.655985
279  Mof_H    0.233292    0.070902    0.0106741
280  Mof_H    0.733292    0.570902    0.0106741
281  Mof_H    0.233296    0.404233    0.677328
282  Mof_H    0.733296    0.904233    0.677328
283  Mof_H    0.266704    0.0957657   0.322663
284  Mof_H    0.766704    0.595766    0.322663
285  Mof_H    0.266705    0.4291      0.989334
286  Mof_H    0.766705    0.9291      0.989334
287  Mof_H    0.277004    0.247862    0.344021
288  Mof_H    0.777004    0.747862    0.344021
289  Mof_Cao  0.86685     0.486321    0.365063
290  Mof_Cao  0.36685     0.986321    0.365063
291  Mof_Cao  0.796044    0.490078    0.698431
292  Mof_Cao  0.296044    0.990078    0.698431
293  Mof_Cao  0.337095    0.023612    0.0317232
294  Mof_Cao  0.837095    0.523612    0.0317232
295  Mof_Cao  0.633139    0.0136803   0.634897
296  Mof_Cao  0.133139    0.51368     0.634897
297  Mof_Cao  0.703962    0.00992359  0.301616
298  Mof_Cao  0.203962    0.509924    0.301616
299  Mof_Cao  0.162902    0.476398    0.968254
300  Mof_Cao  0.662902    0.976397    0.968254
301  Mof_Cao  0.866861    0.152989    0.698403
302  Mof_Cao  0.366861    0.652989    0.698403
303  Mof_Cao  0.83709     0.190275    0.365027
304  Mof_Cao  0.33709     0.690275    0.365027
305  Mof_Cao  0.796036    0.156735    0.0317165
306  Mof_Cao  0.296036    0.656735    0.0317165
307  Mof_Cao  0.133138    0.180345    0.96826
308  Mof_Cao  0.633138    0.680345    0.96826
309  Mof_Cao  0.162909    0.143058    0.301634
310  Mof_Cao  0.662909    0.643058    0.301634
311  Mof_Cao  0.203962    0.176598    0.634946
312  Mof_Cao  0.703962    0.676598    0.634946
313  Mof_Cao  0.296039    0.323409    0.365046
314  Mof_Cao  0.796039    0.823409    0.365046
315  Mof_Cao  0.337099    0.356935    0.698409
316  Mof_Cao  0.837099    0.856935    0.698409
317  Mof_Cao  0.366862    0.319652    0.0317647
318  Mof_Cao  0.866862    0.819652    0.0317647
319  Mof_Cao  0.703957    0.343256    0.968232
320  Mof_Cao  0.203957    0.843256    0.968232
321  Mof_Cao  0.633151    0.347013    0.301598
322  Mof_Cao  0.133151    0.847013    0.301598
323  Mof_Cao  0.662906    0.309722    0.634939
324  Mof_Cao  0.162906    0.809722    0.634939
